Version 4
SHEET 1 880 680
WIRE 256 -112 32 -112
WIRE 448 -112 256 -112
WIRE 32 -16 32 -112
WIRE 256 16 256 -48
WIRE 320 16 256 16
WIRE 448 16 448 -48
WIRE 448 16 400 16
WIRE 256 64 256 16
WIRE 448 64 448 16
WIRE 32 144 32 64
WIRE 256 144 256 128
WIRE 256 144 32 144
WIRE 448 144 448 128
WIRE 448 144 256 144
WIRE 32 176 32 144
FLAG 32 176 0
SYMBOL voltage 32 -32 R0
WINDOW 0 24 16 Left 0
WINDOW 3 24 96 Left 0
WINDOW 123 0 0 Left 0
WINDOW 39 0 0 Left 0
SYMATTR InstName V1
SYMATTR Value SINE(0 7 100)
SYMBOL diode 240 -112 R0
WINDOW 0 24 0 Left 0
WINDOW 3 24 64 Left 0
SYMATTR InstName D1
SYMATTR Value MMSD4148
SYMBOL diode 272 128 R180
WINDOW 0 24 64 Left 0
WINDOW 3 24 0 Left 0
SYMATTR InstName D2
SYMATTR Value MMSD4148
SYMBOL res 416 0 R90
WINDOW 0 0 56 VBottom 0
WINDOW 3 32 56 VTop 0
SYMATTR InstName R1
SYMATTR Value 1k
SYMBOL diode 464 -48 R180
WINDOW 0 24 64 Left 0
WINDOW 3 24 0 Left 0
SYMATTR InstName D3
SYMATTR Value MMSD4148
SYMBOL diode 432 64 R0
WINDOW 0 24 0 Left 0
WINDOW 3 24 64 Left 0
SYMATTR InstName D4
SYMATTR Value MMSD4148
TEXT 136 168 Left 2 !.tran 0 0.05 0 0.00001
